12
TITLE: Charge = 0 Dipole Norm = 0.5905 D [B3LYP/6-311++G(3df,2p)], Isotropic Polar = 72.5148 au [B3LYP/6-31++G(d,p)], PolMat = 105.6674876,0.002533,68.4783336,0.0042167,-0.0011766,43.3984702 au [B3LYP/6-31++G(d,p)]
 H    -0.893138     0.613955    -0.000065
 H    -0.892950    -2.089680     0.000007
 H     1.627960     1.468500    -0.000063
 H     1.628260    -2.943880     0.000177
 H     4.081850    -1.664200     0.000348
 H     4.081720     0.189151     0.000259
 C     0.000000     0.000000     0.000000
 C     0.000102    -1.475600     0.000034
 C     1.282280     0.442398    -0.000009
 C     1.282450    -1.917830     0.000119
 C     2.168080    -0.737655     0.000157
 C     3.514770    -0.737563     0.000268
