11
TITLE: Charge = 0 Dipole Norm = 0.4742 D [B3LYP/6-311++G(3df,2p)], Isotropic Polar = 56.7645 au [B3LYP/6-31++G(d,p)], PolMat = 50.1212215,-1.3440949,64.3418929,-12.0545113,1.6978508,55.8303696 au [B3LYP/6-31++G(d,p)]
 H     1.011500    -0.411172     0.137589
 H    -0.366485    -0.411512    -0.952592
 H     0.556579     2.113660    -0.704296
 H    -1.148330    -1.359020     1.451820
 H    -0.991198     2.985040     1.253090
 H    -2.029840     0.869608     2.566450
 C     0.000000     0.000000     0.000000
 C    -0.000188     1.506720    -0.000171
 C    -0.909774    -0.345988     1.150140
 C    -0.792805     1.948610     1.002230
 C    -1.358570     0.796309     1.717630
