12
TITLE: Charge = -1 Dipole Norm = 4.5329 D [B3LYP/6-311++G(3df,2p)], Isotropic Polar = 91.1207 au [B3LYP/6-31++G(d,p)], PolMat = 96.0466386,-8.3581232,103.0578244,24.4284714,-5.4360953,74.2574958 au [B3LYP/6-31++G(d,p)]
 H    -0.813988    -1.942200    -0.529371
 H     0.926542    -3.287790     0.602654
 H     2.810010    -2.180110     1.827570
 H     2.895160     0.322812     1.882880
 H     1.158260     1.675110     0.753235
 C     0.000000     0.000000     0.000000
 C    -0.000005    -1.448720     0.000014
 C     0.983152    -2.198000     0.639439
 C     2.045620    -1.587060     1.330430
 C     2.082990    -0.180791     1.354690
 C     1.110160     0.587429     0.721984
 O    -0.896330     0.695403    -0.582977
