12
TITLE: Charge = -1 Dipole Norm = 6.2036 D [B3LYP/6-311++G(3df,2p)], Isotropic Polar = 118.683 au [B3LYP/6-31++G(d,p)], PolMat = 131.2889659,-23.3414623,129.0343206,37.8508427,-14.9204495,95.7262154 au [B3LYP/6-31++G(d,p)]
 H     0.812652     1.930720     0.514222
 H    -0.947130     3.257330    -0.599239
 H    -2.832820     2.121100    -1.792400
 H    -2.893020    -0.382006    -1.830500
 H    -1.126390    -1.695790    -0.712666
 C    -0.000000    -0.000000    -0.000000
 C    -0.000004     1.424010     0.000017
 C    -0.996365     2.168780    -0.630408
 C    -2.056140     1.539540    -1.300970
 C    -2.082840     0.136793    -1.317860
 C    -1.087440    -0.609766    -0.688024
 S     1.249500    -0.935583     0.790619
