3
TITLE: Charge = 0 Dipole Norm = 0.6138 D [B3LYP/6-311++G(3df,2p)], Isotropic Polar = 10.7873 au [B3LYP/6-31++G(d,p)], PolMat = 12.2108593,-1.2442274,9.9676532,1.0235779,-0.5189247,10.1835226 au [B3LYP/6-31++G(d,p)]
 H    -0.998442     0.000000    -0.416416
 H     0.702563    -0.768659     0.293015
 C     0.000000     0.000000     0.000000
