8
TITLE: Charge = 0 Dipole Norm = 3.0982 D [B3LYP/6-311++G(3df,2p)], Isotropic Polar = 36.9176 au [B3LYP/6-31++G(d,p)], PolMat = 31.7674177,-1.4116981,42.3673283,5.1521148,-2.2173975,36.6181638 au [B3LYP/6-31++G(d,p)]
 H     0.914280     1.997260    -0.267752
 H    -0.631143     1.997280     0.713606
 H    -1.801860     0.610605    -1.130120
 H    -0.256395     0.610624    -2.111400
 C     0.000000     0.000001     0.000001
 C     0.000030     1.471070     0.000046
 C    -0.713663     0.625721    -1.123920
 O     0.346194    -1.017400     0.545372
