10
TITLE: Charge = 0 Dipole Norm = 1.8365 D [B3LYP/6-311++G(3df,2p)], Isotropic Polar = 42.212 au [B3LYP/6-31++G(d,p)], PolMat = 32.500782,0.243603,48.3027715,-0.4714169,-6.682671,45.8323343 au [B3LYP/6-31++G(d,p)]
 H     0.865404    -0.358580     0.582122
 H    -0.905511    -0.357689     0.518157
 H    -0.033843     1.950550     0.991862
 H     0.073899     1.840770    -2.082360
 H     0.036735     3.355750    -1.005700
 H     0.044891    -1.462070    -1.307940
 C     0.000000     0.000000     0.000000
 C     0.000713     1.500820    -0.000371
 C     0.039153     2.273140    -1.087920
 O     0.047877    -0.497545    -1.332720
