5
TITLE: Charge = -1 Dipole Norm = 1.5085 D [B3LYP/6-311++G(3df,2p)], Isotropic Polar = 49.913 au [B3LYP/6-31++G(d,p)], PolMat = 50.393602,0.,25.0034264,-1.8249414,-0.0000002,74.3421054 au [B3LYP/6-31++G(d,p)]
 H    -0.092826    -0.932341    -1.748270
 H    -0.092826     0.932341    -1.748270
 C     0.007814     0.000000    -1.202080
 C     0.003950     0.000000     0.182454
 N     0.016438     0.000000     1.373470
