10
TITLE: Charge = 0 Dipole Norm = 4.2642 D [B3LYP/6-311++G(3df,2p)], Isotropic Polar = 56.4861 au [B3LYP/6-31++G(d,p)], PolMat = 34.2607034,0.0001182,69.238616,-0.0001647,0.000002,65.9588775 au [B3LYP/6-31++G(d,p)]
 H    -0.000007    -0.579452     0.918090
 H    -0.000005     1.964740     0.918092
 H     0.000001    -1.715790    -1.334970
 H     0.000008     3.101090    -1.334960
 C    -0.000001     0.000000     0.000000
 C     0.000002     1.385300     0.000002
 C     0.000004    -0.632619    -1.248510
 C     0.000016     2.017920    -1.248510
 N     0.000011     0.025306    -2.412950
 N     0.000013     1.360000    -2.412950
