11
TITLE: Charge = -1 Dipole Norm = 5.3689 D [B3LYP/6-311++G(3df,2p)], Isotropic Polar = 100.754 au [B3LYP/6-31++G(d,p)], PolMat = 104.1898694,8.0123602,103.3548374,-15.9493063,-1.2626191,94.7180823 au [B3LYP/6-31++G(d,p)]
 H    -0.228939    -0.548637    -2.057780
 H    -0.086175     1.075920    -0.183769
 H    -0.986101    -0.383301     0.321457
 H     0.711857    -0.136492     0.824461
 H     0.874976    -2.769250    -1.910260
 H     1.293660    -2.464050    -0.220623
 H    -0.423371    -2.634550    -0.689363
 C     0.000000     0.000000     0.000000
 C     0.510864    -0.722431    -1.258870
 C     0.559755    -2.239350    -1.005480
 S     2.136840    -0.061174    -1.826390
