12
TITLE: Charge = 0 Dipole Norm = 1.729 D [B3LYP/6-311++G(3df,2p)], Isotropic Polar = 58.3215 au [B3LYP/6-31++G(d,p)], PolMat = 51.3998034,2.0082975,66.488025,-0.1286618,0.2638996,57.0765601 au [B3LYP/6-31++G(d,p)]
 H     1.608680    -0.716847    -1.240280
 H     0.342293    -0.522298     0.897291
 H     0.354909     1.037300     0.044658
 H    -1.096140     0.021700     0.016921
 H     0.473741    -0.428741    -3.440210
 H    -1.016050     0.078704    -2.625900
 H     0.432691     1.092670    -2.521980
 H    -1.271040    -2.306390    -1.361830
 C     0.000000     0.000000     0.000000
 C     0.513078    -0.680068    -1.272690
 C     0.077084     0.054864    -2.543610
 S     0.067671    -2.480490    -1.325020
