10
TITLE: Charge = -1 Dipole Norm = 5.4638 D [B3LYP/6-311++G(3df,2p)], Isotropic Polar = 55.9311 au [B3LYP/6-31++G(d,p)], PolMat = 61.1500506,1.9797742,43.2021748,2.762496,-3.78988,63.4410908 au [B3LYP/6-31++G(d,p)]
 H    -0.521803    -0.924536    -2.038350
 H    -1.992230     0.075310    -2.056330
 H    -0.370117     0.826195    -2.023660
 H    -1.497740     0.886968     0.258937
 H    -1.530560    -0.866150     0.279024
 C    -0.973367    -0.005123    -1.646050
 C    -0.973329    -0.005970    -0.114621
 C     0.443532    -0.004832     0.555617
 O     1.414030     0.335876    -0.175426
 O     0.452398    -0.323657     1.776770
