12
TITLE: Charge = 0 Dipole Norm = 2.1778 D [B3LYP/6-311++G(3df,2p)], Isotropic Polar = 57.8135 au [B3LYP/6-31++G(d,p)], PolMat = 40.766654,4.7763503,74.4521968,-8.6650815,-11.5560755,58.2217641 au [B3LYP/6-31++G(d,p)]
 H     0.368070    -0.493016    -0.895144
 H    -0.790909    -0.119184     1.922190
 H     0.454409     2.943350    -1.098200
 H     0.117861    -2.525000     2.018660
 H    -1.506970    -2.524060     1.349310
 H    -0.108066    -2.667170     0.260046
 C     0.000000     0.000000     0.000000
 C     0.000785     1.476820     0.000229
 C    -0.437960    -0.689827     1.063590
 C    -0.480895    -2.180870     1.165820
 O     0.484131     1.974640    -1.171610
 O    -0.371312     2.203490     0.903872
