11
TITLE: Charge = -1 Dipole Norm = 3.9445 D [B3LYP/6-311++G(3df,2p)], Isotropic Polar = 87.6649 au [B3LYP/6-31++G(d,p)], PolMat = 85.7133209,4.3724213,86.2358748,8.1394302,-3.1688263,91.0454086 au [B3LYP/6-31++G(d,p)]
 H    -0.633117     1.252420     0.458839
 H    -1.287340     0.250661    -1.739540
 H     0.305364     1.063790    -1.818350
 H     0.194344    -0.726029    -1.746050
 H     1.252400     0.250661     1.764860
 H     1.719800    -0.726029     0.358812
 H     1.823070     1.063790     0.275813
 C    -0.250208     0.213095    -1.383820
 C    -0.250444     0.213995     0.181504
 C     1.237190     0.213095     0.668526
 O    -0.974220    -0.783798     0.706047
