10
TITLE: Charge = 1 Dipole Norm = 1.1871 D [B3LYP/6-311++G(3df,2p)], Isotropic Polar = 32.2372 au [B3LYP/6-31++G(d,p)], PolMat = 26.7062831,1.4164481,34.8273324,-6.7044631,-2.5703861,35.1780819 au [B3LYP/6-31++G(d,p)]
 H     0.621136     1.565200    -1.127160
 H     0.976197    -0.013719    -1.771480
 H    -0.429208    -1.700720     0.778872
 H    -0.519856     1.859810     0.943367
 H    -1.672400     0.528277     1.195350
 H    -0.117281     0.528277     2.052320
 C     0.000000     0.000000     0.000000
 C    -0.610413     0.785645     1.107700
 N     0.569995     0.557732    -1.034350
 O     0.000000    -1.306970     0.000000
