7
TITLE: Charge = -1 Dipole Norm = 3.6753 D [B3LYP/6-311++G(3df,2p)], Isotropic Polar = 44.4094 au [B3LYP/6-31++G(d,p)], PolMat = 53.0742855,-0.6920477,48.5911258,-0.0013741,0.0001658,31.5628816 au [B3LYP/6-31++G(d,p)]
 H    -1.738810     0.479889    -0.881293
 H    -1.726290    -1.080220    -0.001629
 H    -1.738470     0.476880     0.883152
 C    -1.353670    -0.049922    -0.000052
 C     0.208850     0.001165    -0.000095
 O     0.805230    -1.110650     0.000037
 O     0.703831     1.162650     0.000044
