12
TITLE: Charge = 0 Dipole Norm = 3.6729 D [B3LYP/6-311++G(3df,2p)], Isotropic Polar = 51.9815 au [B3LYP/6-31++G(d,p)], PolMat = 64.4725562,-3.1214465,52.431084,3.1217768,-1.4632851,39.0408814 au [B3LYP/6-31++G(d,p)]
 H    -0.745255    -0.777483    -0.180854
 H    -0.184072     0.790248    -0.737033
 H    -0.174110     0.406608     1.009080
 H     3.214260     1.998120     0.238426
 H     4.396840     0.009041     0.342528
 H     1.420270    -1.560410     0.052553
 H     1.548970     1.938110    -0.018385
 C     0.000000     0.000000     0.000000
 C     2.506930     0.096974     0.035124
 N     1.319070    -0.581348    -0.176672
 N     2.439410     1.479570    -0.148071
 N     3.570720    -0.584649     0.291960
