5
TITLE: Charge = -1 Dipole Norm = 1.9633 D [B3LYP/6-311++G(3df,2p)], Isotropic Polar = 42.1447 au [B3LYP/6-31++G(d,p)], PolMat = 40.7458306,0.0070666,44.9466342,0.0002436,-0.0019218,40.7415394 au [B3LYP/6-31++G(d,p)]
 H     0.000785     0.497757    -1.029420
 H    -0.890669     0.499226     0.514749
 H     0.892269     0.496387     0.514732
 C    -0.000000     0.000000     0.000000
 O    -0.002144    -1.337290    -0.000001
