7
TITLE: Charge = 0 Dipole Norm = 1.4145 D [B3LYP/6-311++G(3df,2p)], Isotropic Polar = 25.4169 au [B3LYP/6-31++G(d,p)], PolMat = 24.3447563,-3.4962754,27.421463,2.6620854,-3.1525575,24.4845895 au [B3LYP/6-31++G(d,p)]
 H    -0.399689     0.355129     0.956500
 H     1.013030     0.390558    -0.153880
 H    -0.654792     0.319563    -0.816548
 H     1.381060    -2.499500     0.586525
 C     0.000000     0.000000     0.000000
 O    -0.024743    -1.417760    -0.066465
 O     0.790133    -1.886090     1.052900
