7
TITLE: Charge = 1 Dipole Norm = 1.2185 D [B3LYP/6-311++G(3df,2p)], Isotropic Polar = 26.697 au [B3LYP/6-31++G(d,p)], PolMat = 24.5864195,-0.9667429,23.5770551,-0.58773,-0.9698183,31.9275658 au [B3LYP/6-31++G(d,p)]
 H     0.972755    -0.120916    -1.582990
 H    -0.602540    -0.994257    -1.452960
 H    -0.557359     0.806365    -1.582990
 H    -1.214760    -0.081305     0.979377
 H     0.490091    -1.114480     0.979377
 C    -0.052232    -0.086189    -1.210460
 S     0.076576     0.126358     0.620182
