11
TITLE: Charge = 1 Dipole Norm = 7.7999 D [B3LYP/6-311++G(3df,2p)], Isotropic Polar = 36.3568 au [B3LYP/6-31++G(d,p)], PolMat = 29.2456658,-5.287451,40.1644285,-0.9767885,-3.0727672,39.6602049 au [B3LYP/6-31++G(d,p)]
 H     0.671816     1.388440    -2.008110
 H     1.405320    -0.536231    -1.033670
 H    -0.204640    -1.240140    -1.324600
 H    -0.828844     0.734049    -2.276370
 H    -0.495980     1.462460    -0.785252
 H     0.660457    -1.952280     1.056060
 C     0.331706    -0.393135    -0.890483
 C    -0.024370    -0.191872     0.600335
 N    -0.102449     0.881272    -1.569370
 O     0.247596    -1.165560     1.448990
 O    -0.539472     0.851167     0.938309
