4
TITLE: Charge = 1 Dipole Norm = 1.3183 D [B3LYP/6-311++G(3df,2p)], Isotropic Polar = 5.47333 au [B3LYP/6-31++G(d,p)], PolMat = 5.989227,0.0164853,6.0148537,0.2455276,-0.116016,4.4159154 au [B3LYP/6-31++G(d,p)]
 H     0.386407     0.867476     0.252488
 H    -0.975410    -0.044123     0.110925
 H     0.476316    -0.769092     0.384028
 O     0.000000     0.000000     0.000000
