6
TITLE: Charge = 0 Dipole Norm = 0.002 D [B3LYP/6-311++G(3df,2p)], Isotropic Polar = 29.6718 au [B3LYP/6-31++G(d,p)], PolMat = 29.7260659,-0.0057961,16.8973673,-1.5387994,-0.0136275,42.3918856 au [B3LYP/6-31++G(d,p)]
 H    -1.576910     0.001013    -0.213221
 H     1.576880    -0.000804     0.213248
 C    -0.651889    -0.000823     0.396434
 C     0.651874    -0.000046    -0.396438
 O    -0.652015    -0.000483     1.607620
 O     0.652030     0.001109    -1.607620
