4
TITLE: Charge = 0 Dipole Norm = 2.4444 D [B3LYP/6-311++G(3df,2p)], Isotropic Polar = 15.6785 au [B3LYP/6-31++G(d,p)], PolMat = 12.2746153,1.4503752,17.5724749,-4.979217,-2.3329791,17.1883612 au [B3LYP/6-31++G(d,p)]
 H     0.000000     1.108610     0.000000
 H     0.524930    -0.490431    -0.844369
 C     0.000000     0.000000     0.000000
 O    -0.542368    -0.638635     0.872418
