11
TITLE: Charge = 0 Dipole Norm = 2.2826 D [B3LYP/6-311++G(3df,2p)], Isotropic Polar = 61.323 au [B3LYP/6-31++G(d,p)], PolMat = 72.1995428,0.,37.5208814,-1.7744397,0.,74.2484905 au [B3LYP/6-31++G(d,p)]
 H    -2.164920     0.000000     1.129340
 H    -0.055136     0.000000     2.460770
 H     2.141760     0.000000     1.236540
 H     2.103520     0.000000    -1.278140
 H    -0.104418     0.000000    -2.439550
 C    -1.198250     0.000000     0.629669
 C    -0.016593     0.000000     1.375810
 C     1.201010     0.000000     0.693402
 C     1.183190     0.000000    -0.702275
 C    -0.053814     0.000000    -1.352550
 N    -1.230580     0.000000    -0.710476
