9
TITLE: Charge = -1 Dipole Norm = 5.865 D [B3LYP/6-311++G(3df,2p)], Isotropic Polar = 75.803 au [B3LYP/6-31++G(d,p)], PolMat = 68.9499541,-6.1895354,77.850764,4.688964,-8.3301862,80.6083742 au [B3LYP/6-31++G(d,p)]
 H     0.820320     0.284810    -1.421840
 H    -0.711808    -0.610193    -1.435050
 H    -1.257760     0.273971     0.816425
 H     0.225236     1.241540     0.808804
 H    -0.683090     2.189080    -1.118060
 C    -0.214066     0.284942    -1.052800
 C    -0.213978     0.284881     0.471099
 O    -0.939464     1.411690    -1.631860
 S     0.730693    -1.130730     1.180920
