9
TITLE: Charge = -1 Dipole Norm = 6.7458 D [B3LYP/6-311++G(3df,2p)], Isotropic Polar = 100.878 au [B3LYP/6-31++G(d,p)], PolMat = 86.9078916,-15.9797702,105.4980745,15.7480245,-27.4606073,110.2279426 au [B3LYP/6-31++G(d,p)]
 H     1.031990    -0.041281    -1.076270
 H    -0.497570    -0.929904    -1.073200
 H    -1.028010    -0.035558     1.191000
 H     0.479048     0.889328     1.188620
 H    -0.267855     2.379120    -0.826012
 C     0.010987    -0.041911    -0.688853
 C     0.011033    -0.042611     0.836394
 S    -0.915809     1.398290    -1.488990
 S     0.925201    -1.507950     1.470910
