10
TITLE: Charge = 0 Dipole Norm = 1.1903 D [B3LYP/6-311++G(3df,2p)], Isotropic Polar = 65.3083 au [B3LYP/6-31++G(d,p)], PolMat = 58.5678082,-8.9428043,69.9213375,7.592579,-13.2954537,67.4357239 au [B3LYP/6-31++G(d,p)]
 H     1.011780     0.006955    -1.153560
 H    -0.511181    -0.884913    -1.138290
 H    -1.028820    -0.017031     1.148070
 H     0.493308     0.901484     1.153300
 H    -0.094223     2.391210    -1.082390
 H     0.728546    -1.270350     2.682030
 C    -0.005983     0.006105    -0.754421
 C    -0.004110     0.006002     0.771292
 S    -0.944645     1.418850    -1.471940
 S     0.910967    -1.493850     1.365040
