3
TITLE: Charge = -1 Dipole Norm = 1.759 D [B3LYP/6-311++G(3df,2p)], Isotropic Polar = 32.6722 au [B3LYP/6-31++G(d,p)], PolMat = 34.1479213,2.2620177,22.4858099,-16.1763543,1.8120363,41.3829312 au [B3LYP/6-31++G(d,p)]
 H    -0.807245     0.000000    -0.646660
 H     0.176172    -1.009390     0.141126
 N     0.000000     0.000000     0.000000
