10
TITLE: Charge = 0 Dipole Norm = 0 D [B3LYP/6-311++G(3df,2p)], Isotropic Polar = 56.5317 au [B3LYP/6-31++G(d,p)], PolMat = 72.2530992,-0.0000215,63.5305904,-0.0003379,0.000007,33.8114006 au [B3LYP/6-31++G(d,p)]
 H     0.933352     0.558164    -0.000010
 H     0.933349    -1.956590    -0.000007
 H    -3.202770     0.558173     0.000033
 H    -3.202780    -1.956590     0.000034
 C     0.000000     0.000000    -0.000001
 C    -0.000002    -1.398430    -0.000001
 C    -2.269430    -0.000000     0.000019
 C    -2.269430    -1.398420     0.000017
 N    -1.134710     0.709957     0.000009
 N    -1.134710    -2.108380     0.000009
