12
TITLE: Charge = 0 Dipole Norm = 3.3791 D [B3LYP/6-311++G(3df,2p)], Isotropic Polar = 59.4473 au [B3LYP/6-31++G(d,p)], PolMat = 43.2515536,0.4646417,72.0842245,-6.463267,-1.5670656,63.0062586 au [B3LYP/6-31++G(d,p)]
 H    -0.916077     0.857843     3.072780
 H     0.250077     1.950300    -0.839238
 H    -0.437542     2.792540     1.467290
 H    -0.804994    -1.931310     2.699930
 H     0.465091    -2.337690     1.529020
 H    -1.225990    -2.337890     1.024590
 C    -0.000042     1.316240     0.000040
 C    -0.609791     0.736701     2.044910
 C    -0.379964    -0.380796     1.274440
 C    -0.493818    -1.823350     1.656650
 N     0.000000     0.000000     0.000000
 N    -0.363027     1.818150     1.217290
