11
TITLE: Charge = 0 Dipole Norm = 3.1329 D [B3LYP/6-311++G(3df,2p)], Isotropic Polar = 48.1178 au [B3LYP/6-31++G(d,p)], PolMat = 50.870888,-0.0047269,38.25108,-0.0000106,0.0026147,55.2315558 au [B3LYP/6-31++G(d,p)]
 H     1.751890    -0.888219     0.345746
 H     1.752710     0.886849     0.345054
 H    -0.000337    -0.886554     2.118920
 H     0.000331     0.888161     2.118060
 H    -1.752560    -0.886906     0.345740
 H    -1.752050     0.888162     0.345049
 C     0.000001    -0.000385    -0.676395
 C     1.111240    -0.000374     0.384181
 C    -0.000002     0.000495     1.481710
 C    -1.111240     0.000461     0.384177
 O     0.000003    -0.000334    -1.882570
