8
TITLE: Charge = 0 Dipole Norm = 0 D [B3LYP/6-311++G(3df,2p)], Isotropic Polar = 26.2978 au [B3LYP/6-31++G(d,p)], PolMat = 25.6384537,-0.59184,27.7733819,-0.0060042,0.0020136,25.4814212 au [B3LYP/6-31++G(d,p)]
 H    -0.099081     0.386350    -1.020480
 H    -0.955087     0.166711     0.510353
 H     0.757053     0.605757     0.510275
 H     0.479670    -1.870420     1.020470
 H    -0.376483    -2.089830    -0.510276
 H     1.335660    -1.650780    -0.510379
 C     0.000000     0.000000     0.000000
 C     0.380576    -1.484070    -0.000014
