12
TITLE: Charge = 0 Dipole Norm = 0.4279 D [B3LYP/6-311++G(3df,2p)], Isotropic Polar = 50.9683 au [B3LYP/6-31++G(d,p)], PolMat = 43.0317527,-2.9486242,57.0073029,0.4165231,-10.1645265,52.8657984 au [B3LYP/6-31++G(d,p)]
 H     0.574965    -0.723729    -0.581303
 H    -0.274427     1.282280    -1.664840
 H    -1.041700     1.844130    -0.075720
 H     0.762811    -0.407551     1.950480
 H    -0.769836     0.460996     1.940660
 H    -1.058290    -1.923070     2.703890
 H    -1.951520    -1.646820     1.196280
 H    -0.405979    -2.507820     1.165870
 C     0.000000     0.000000     0.000000
 C    -0.461744     1.095320    -0.611367
 C    -0.213803    -0.346470     1.448540
 C    -0.951200    -1.683700     1.640420
