11
TITLE: Charge = 0 Dipole Norm = 0.4658 D [B3LYP/6-311++G(3df,2p)], Isotropic Polar = 53.6419 au [B3LYP/6-31++G(d,p)], PolMat = 58.8532883,4.9778957,57.1193701,5.2677405,-6.2957229,44.9529199 au [B3LYP/6-31++G(d,p)]
 H    -1.065450     0.203765     0.034551
 H    -0.177677    -1.949120     0.698823
 H     1.560500    -1.425470     0.310932
 H     2.282530     2.067810    -1.144180
 H     3.837820     1.330770     0.559554
 H     2.544160     0.281767     1.379300
 C     0.000000     0.000000     0.000000
 C     0.508037    -1.180870     0.360750
 C     1.979530     1.369950    -0.370180
 C     2.822010     0.953291     0.578143
 O     0.641873     1.096620    -0.521972
