11
TITLE: Charge = 0 Dipole Norm = 1.6961 D [B3LYP/6-311++G(3df,2p)], Isotropic Polar = 43.5402 au [B3LYP/6-31++G(d,p)], PolMat = 43.2786801,-0.5031012,47.1854084,-7.4541411,0.7673929,40.156562 au [B3LYP/6-31++G(d,p)]
 H     0.293118    -0.576504     0.881678
 H    -0.377673     0.971487     0.332706
 H    -0.816721    -0.538857    -0.488089
 H     0.896985     0.786341    -1.828660
 H     1.995560     0.749075    -0.472795
 H     3.128320    -1.767040    -2.583260
 C     0.000000     0.000000     0.000000
 C     1.180050     0.191927    -0.950851
 C     1.761390    -1.108440    -1.457620
 O     2.807720    -0.894084    -2.299500
 O     1.377860    -2.224680    -1.177540
