11
TITLE: Charge = 0 Dipole Norm = 2.2836 D [B3LYP/6-311++G(3df,2p)], Isotropic Polar = 44.0761 au [B3LYP/6-31++G(d,p)], PolMat = 35.2386433,0.777878,53.4709734,-3.2292877,-2.1978967,43.518701 au [B3LYP/6-31++G(d,p)]
 H     0.676919     0.413536     0.753400
 H    -0.996752     0.414302     0.178037
 H    -0.335692    -1.882970     0.974928
 H     1.002940    -1.909070    -0.189744
 H    -0.676321    -1.908330    -0.766459
 H     0.871994     1.964280    -2.530840
 C     0.000000     0.000000     0.000000
 C    -0.000436    -1.516140    -0.000812
 C     0.520225     1.764920    -1.508050
 O     0.451115     0.440335    -1.311790
 O     0.242832     2.618860    -0.697012
