8
TITLE: Charge = -1 Dipole Norm = 4.7702 D [B3LYP/6-311++G(3df,2p)], Isotropic Polar = 83.5189 au [B3LYP/6-31++G(d,p)], PolMat = 76.1234089,-14.2913023,104.5351448,-5.0323942,7.9645573,69.8980286 au [B3LYP/6-31++G(d,p)]
 H    -0.903343    -0.376125    -0.505613
 H    -0.045187    -0.376125     1.034230
 H     1.194160    -1.727480    -0.665505
 H     1.287390    -0.292515    -1.728200
 H     2.146980    -0.292515    -0.185777
 C     0.000000     0.000000     0.000000
 C     1.226860    -0.621816    -0.683731
 S     0.000000     1.842280     0.000000
