12
TITLE: Charge = -1 Dipole Norm = 4.5337 D [B3LYP/6-311++G(3df,2p)], Isotropic Polar = 63.7972 au [B3LYP/6-31++G(d,p)], PolMat = 63.2795644,-8.445171,61.3772437,1.6744378,-0.567782,66.7347921 au [B3LYP/6-31++G(d,p)]
 H    -0.652723    -0.112295     0.782301
 H     0.489135     0.865690     0.226044
 H    -0.310275     0.853534    -1.898190
 H    -1.948340    -0.862407    -2.669740
 H    -0.426766    -1.630170    -2.118550
 H    -1.868890    -1.655430    -1.082540
 C    -0.880106     0.276237    -1.159300
 C    -1.304500    -1.050770    -1.804230
 C    -2.160540     1.108680    -0.786395
 N     0.000000     0.000000     0.000000
 O    -2.700040     1.733400    -1.737690
 O    -2.526120     1.034860     0.422086
