12
TITLE: Charge = 0 Dipole Norm = 4.2487 D [B3LYP/6-311++G(3df,2p)], Isotropic Polar = 48.6258 au [B3LYP/6-31++G(d,p)], PolMat = 48.6584269,3.832591,38.5786892,-4.1154149,2.2523719,58.6403936 au [B3LYP/6-31++G(d,p)]
 H     0.386694    -0.600311     0.830668
 H     0.746095     0.044547    -0.792882
 H    -0.180337     1.012380     0.379005
 H    -1.683620    -1.335460     2.259520
 H    -1.929300     0.406407     1.992360
 H    -3.320370    -0.672819     2.105970
 H    -3.119900    -1.230880    -0.127349
 C     0.000000     0.000000     0.000000
 C    -1.270860    -0.599274    -0.577978
 C    -2.296880    -0.591462     1.734160
 N    -2.310630    -0.793664     0.293169
 O    -1.378640    -0.886516    -1.768020
