11
TITLE: Charge = 0 Dipole Norm = 1.9496 D [B3LYP/6-311++G(3df,2p)], Isotropic Polar = 43.621 au [B3LYP/6-31++G(d,p)], PolMat = 40.2016314,-1.6565506,48.8009936,6.7054722,-1.8812928,41.8604839 au [B3LYP/6-31++G(d,p)]
 H    -0.668499     1.487340    -2.035460
 H    -1.953550     1.608460    -0.833141
 H    -0.846268     2.989160    -1.076330
 H     0.541464    -0.343944     1.989130
 H     1.888300    -0.349654     0.824329
 H     0.710105    -1.704300     0.829611
 C     0.003777     1.354220     0.000880
 C    -0.922903     1.902370    -1.055930
 C     0.844771    -0.633543     0.980170
 O     0.000000     0.000000     0.000000
 O     0.671841     2.016580     0.768224
