8
TITLE: Charge = 0 Dipole Norm = 1.8237 D [B3LYP/6-311++G(3df,2p)], Isotropic Polar = 31.9959 au [B3LYP/6-31++G(d,p)], PolMat = 35.7107776,-1.2833199,36.2908541,-0.0003099,0.0001923,23.9861393 au [B3LYP/6-31++G(d,p)]
 H     1.677140    -0.705480    -0.881716
 H     1.924020     0.832134    -0.000121
 H     1.677130    -0.705271     0.881861
 H    -1.734370    -0.802064    -0.000048
 C     1.396870    -0.121130    -0.000002
 C    -0.088436     0.125010    -0.000010
 O    -0.633057     1.208500     0.000005
 O    -0.791263    -1.038820     0.000007
