9
TITLE: Charge = 0 Dipole Norm = 1.289 D [B3LYP/6-311++G(3df,2p)], Isotropic Polar = 31.2748 au [B3LYP/6-31++G(d,p)], PolMat = 29.8846551,-1.3969065,33.3173503,0.8814073,-2.0988339,30.6223256 au [B3LYP/6-31++G(d,p)]
 H     0.466838    -0.402679    -0.912812
 H     0.578143    -0.322787     0.868653
 H    -1.022270    -0.402679     0.078282
 H    -0.664938     3.048170    -0.999064
 H    -0.291715     1.654240    -2.052490
 H    -1.780790     1.654240    -1.061420
 C     0.000000     0.000000    -0.000000
 C    -0.723114     1.960980    -1.086470
 O    -0.000000     1.414870    -0.000000
