8
TITLE: Charge = 0 Dipole Norm = 1.9951 D [B3LYP/6-311++G(3df,2p)], Isotropic Polar = 31.8511 au [B3LYP/6-31++G(d,p)], PolMat = 31.9579827,-1.7079066,34.6440788,-6.5457578,1.3572938,28.9511664 au [B3LYP/6-31++G(d,p)]
 H    -0.951904    -1.822300    -0.380334
 H     0.820347    -1.733800    -0.655425
 H     0.160694    -1.822320     1.012280
 H    -0.843609     1.680040     0.671721
 C    -0.000053    -1.444900    -0.000046
 C    -0.943618     0.588266     0.751444
 O     0.000000     0.000000     0.000000
 O    -1.777010     0.016299     1.415130
