6
TITLE: Charge = 0 Dipole Norm = 1.6885 D [B3LYP/6-311++G(3df,2p)], Isotropic Polar = 18.6551 au [B3LYP/6-31++G(d,p)], PolMat = 17.669634,0.0585719,20.0200051,-0.0617859,-0.5806385,18.2756856 au [B3LYP/6-31++G(d,p)]
 H    -0.105137    -0.311808     1.041380
 H    -0.841215    -0.413149    -0.573451
 H     0.938877    -0.413129    -0.393715
 H     0.091593     1.740550    -0.907432
 C     0.000000     0.000000     0.000000
 O    -0.000019     1.425100    -0.000001
