7
TITLE: Charge = 1 Dipole Norm = 1.8109 D [B3LYP/6-311++G(3df,2p)], Isotropic Polar = 15.8884 au [B3LYP/6-31++G(d,p)], PolMat = 16.9918388,-0.579839,15.7262619,0.1125798,-0.7458649,14.9471216 au [B3LYP/6-31++G(d,p)]
 H    -0.776798    -0.761119     0.000000
 H    -0.011859     0.634084     0.884673
 H     0.021897     0.556815    -0.933914
 H     2.114500    -0.253845    -0.101933
 H     1.401420    -1.430490     0.731863
 C     0.000000     0.000000     0.000000
 O     1.302030    -0.789057     0.000000
