6
TITLE: Charge = 0 Dipole Norm = 1.5501 D [B3LYP/6-311++G(3df,2p)], Isotropic Polar = 31.6384 au [B3LYP/6-31++G(d,p)], PolMat = 28.3372753,-0.464569,36.9733395,0.0126103,1.6990838,29.6047025 au [B3LYP/6-31++G(d,p)]
 H     0.945791     0.545756     0.000000
 H    -0.447372     0.075024     0.993113
 H    -0.660708     0.444733    -0.746807
 H    -0.845594    -2.223650    -0.368814
 C     0.000000     0.000000     0.000000
 S     0.412213    -1.739760    -0.420217
