10
TITLE: Charge = 0 Dipole Norm = 2.3758 D [B3LYP/6-311++G(3df,2p)], Isotropic Polar = 55.7883 au [B3LYP/6-31++G(d,p)], PolMat = 58.1099235,-1.0541709,66.2235019,15.1052132,-0.6533084,43.03141 au [B3LYP/6-31++G(d,p)]
 H    -0.784751     0.570575    -0.485329
 H    -0.790685    -1.959840    -0.489002
 H     1.138000     1.707310     0.703800
 H     2.717900    -1.976180     1.680890
 C     0.000000     0.000000     0.000000
 C     0.000009    -1.394520     0.000004
 C     1.061080     0.623002     0.656225
 C     1.931340    -1.404270     1.194460
 N     0.963760    -2.109720     0.596043
 N     2.035840    -0.071289     1.259080
