10
TITLE: Charge = 0 Dipole Norm = 5.6761 D [B3LYP/6-311++G(3df,2p)], Isotropic Polar = 40.4588 au [B3LYP/6-31++G(d,p)], PolMat = 41.2365816,-3.0178311,31.6609801,2.8480242,1.4818479,48.4789182 au [B3LYP/6-31++G(d,p)]
 H     0.796950    -0.375744    -1.239010
 H    -1.721220    -0.165793     0.594557
 H    -1.084610     1.423890     0.202079
 H    -1.652120    -0.715830    -1.646230
 H    -1.399750     0.874747    -1.970120
 C    -0.962841     0.354998     0.001287
 C     0.414704    -0.045654     0.555710
 N    -1.058740     0.080837    -1.439980
 O     0.680838    -0.000151     1.734830
 O     1.289260    -0.432748    -0.385254
