5
TITLE: Charge = 0 Dipole Norm = 1.5815 D [B3LYP/6-311++G(3df,2p)], Isotropic Polar = 20.5436 au [B3LYP/6-31++G(d,p)], PolMat = 17.3412489,-1.4088736,25.1095282,-5.0496216,1.6885363,19.1799436 au [B3LYP/6-31++G(d,p)]
 H     0.594377     1.645810    -0.712362
 H    -0.661906    -0.373032     0.793295
 C     0.000000     0.000000     0.000000
 O     0.000000     1.347490     0.000000
 O     0.633364    -0.692703    -0.759087
