10
TITLE: Charge = 0 Dipole Norm = 1.7157 D [B3LYP/6-311++G(3df,2p)], Isotropic Polar = 49.5706 au [B3LYP/6-31++G(d,p)], PolMat = 45.772954,-4.8986392,52.4221904,4.129739,-7.0186633,50.516526 au [B3LYP/6-31++G(d,p)]
 H     0.803561     0.337686    -1.461380
 H    -0.724115    -0.560669    -1.455330
 H    -1.257480     0.291798     0.812793
 H     0.244309     1.248660     0.830036
 H    -0.479943     2.254950    -1.439220
 H     0.435898    -0.962274     2.364800
 C    -0.226896     0.337168    -1.078600
 C    -0.227611     0.336255     0.450892
 O    -0.968329     1.437350    -1.601820
 S     0.715716    -1.134340     1.058070
