9
TITLE: Charge = 0 Dipole Norm = 3.7342 D [B3LYP/6-311++G(3df,2p)], Isotropic Polar = 46.6547 au [B3LYP/6-31++G(d,p)], PolMat = 53.1179637,0.0014461,31.8338041,0.1767734,-0.0012942,55.01232 au [B3LYP/6-31++G(d,p)]
 H     0.620060    -0.000000    -2.118000
 H     0.743740     0.000000     2.108490
 H    -1.885390     0.000000     1.235560
 H     2.115180     0.000000    -0.050390
 C    -0.973643     0.000000     0.655522
 C     0.321967     0.000000     1.115240
 C     0.262110     0.000000    -1.097960
 N    -1.000290     0.000000    -0.723224
 N     1.106550     0.000000    -0.021417
