10
TITLE: Charge = 1 Dipole Norm = 1.3685 D [B3LYP/6-311++G(3df,2p)], Isotropic Polar = 39.6187 au [B3LYP/6-31++G(d,p)], PolMat = 46.1629492,0.0000425,24.6232845,-0.5899487,-0.0001499,48.0699852 au [B3LYP/6-31++G(d,p)]
 H     0.604245     0.000000    -2.139380
 H    -1.824830     0.000000     1.347010
 H     0.851242     0.000000     2.102200
 H    -1.772230     0.000000    -1.206710
 H     2.141610     0.000000    -0.101698
 C    -0.922240     0.000000     0.756368
 C     0.390657     0.000000     1.126790
 C     0.310534     0.000000    -1.100430
 N    -0.939556     0.000000    -0.627499
 N     1.129020     0.000000    -0.043619
