12
TITLE: Charge = 0 Dipole Norm = 4.5457 D [B3LYP/6-311++G(3df,2p)], Isotropic Polar = 66.9771 au [B3LYP/6-31++G(d,p)], PolMat = 79.0187479,-0.0147785,37.3048407,10.0574339,-0.0080336,84.6076199 au [B3LYP/6-31++G(d,p)]
 H    -0.373127    -0.000255     2.681500
 H    -2.470460     0.000743     1.301180
 H    -2.296110     0.000741    -1.063160
 H     1.752720    -0.000315    -0.972378
 C    -0.266827    -0.000112    -1.258050
 C     0.951538    -0.000213     0.938837
 C    -0.349111    -0.000075     1.600740
 C    -1.479960     0.000423     0.859893
 N     0.871265    -0.000113    -0.470948
 N    -1.446470     0.000629    -0.516262
 O    -0.256667     0.000301    -2.478320
 O     2.041610    -0.000883     1.492670
