6
TITLE: Charge = 0 Dipole Norm = 4.0158 D [B3LYP/6-311++G(3df,2p)], Isotropic Polar = 25.4706 au [B3LYP/6-31++G(d,p)], PolMat = 19.4797466,1.7484546,32.9793693,-4.3839453,-2.8554281,23.9527315 au [B3LYP/6-31++G(d,p)]
 H    -0.487296     1.814540     0.795744
 H     0.554189     3.002120    -0.904104
 H     1.060090     1.554040    -1.728500
 C     0.000017     1.219570     0.000171
 N     0.583997     1.995580    -0.953957
 O     0.000000     0.000000     0.000000
