9
TITLE: Charge = 0 Dipole Norm = 0.0005 D [B3LYP/6-311++G(3df,2p)], Isotropic Polar = 34.9597 au [B3LYP/6-31++G(d,p)], PolMat = 32.7333826,-0.0001426,36.2522504,1.1142872,-0.0005054,35.8934787 au [B3LYP/6-31++G(d,p)]
 H    -0.957727    -0.511880    -0.006094
 H     0.779181    -0.511861    -0.556940
 H     0.779113     2.021820    -0.557031
 H    -0.957727     2.021830    -0.006166
 H     1.442380     0.755521     1.534210
 H    -0.294498     0.755498     2.085090
 C     0.000000     0.000000     0.000000
 C     0.000003     1.509950    -0.000002
 C     0.395273     0.754979     1.246310
