11
TITLE: Charge = 0 Dipole Norm = 0.092 D [B3LYP/6-311++G(3df,2p)], Isotropic Polar = 38.5982 au [B3LYP/6-31++G(d,p)], PolMat = 39.2578135,-1.5539192,39.0717686,-2.1106531,1.0282959,37.4649909 au [B3LYP/6-31++G(d,p)]
 H    -2.066340    -0.550532     0.315312
 H    -1.097980    -0.550532     1.778660
 H     0.335531    -1.019210    -0.222036
 H    -0.158093     0.514326    -0.955741
 H     0.817890     0.514326     0.519125
 H    -2.691560     1.382830     1.781130
 H    -1.024260     1.976100     1.738150
 H    -2.000240     1.976100     0.263287
 C     0.000000     0.000000     0.000000
 C    -1.278350     0.000000     0.845940
 C    -1.778070     1.410930     1.176630
