9
TITLE: Charge = 0 Dipole Norm = 0.6811 D [B3LYP/6-311++G(3df,2p)], Isotropic Polar = 46.5434 au [B3LYP/6-31++G(d,p)], PolMat = 52.9654115,0.7662842,52.1310619,-5.8285748,-0.2220956,34.5336528 au [B3LYP/6-31++G(d,p)]
 H     0.835218    -0.641538    -0.241952
 H     0.747596     2.109470    -0.216537
 H    -3.040860     0.966803     0.880911
 H    -1.702450    -1.406930     0.493229
 C     0.000000     0.000000     0.000000
 C    -0.000069     1.362640     0.000045
 C    -2.025530     0.751732     0.586786
 C    -1.325960    -0.399928     0.384148
 O    -1.229900     1.837360     0.356253
